Date:	2022-11-07	Time:	22:02:00	
#Start parsing netlist ...
#grep an annotation:
* TestBench 2 for Homework 6, 2022 EDA course. 
#grep an annotation:
* Author    : Hao Limin.
#grep an annotation:
* Date      : 2022/11/03.
#grep a diode:
D1 1 0 diode
#grep a diode:
D2 2 0 diode
#grep a resistor:
R1 1 0 1000 
#grep a resistor:
R2 1 2 1m
#grep a source:
Is 0 1 1 0 tran const(1)
#grep a command:
.TRAN 0.01 1 0
#grep a command:
.plot tran v(1) v(2)
#grep a command:
.END
Here's the result of parser:
-----------------------------------------------------
Title:
TA-session-6-ckt-2
Nodes:3
Devices:3
Resistor:2	Capacitor:1	Inductance:0
Vsrc:0
Isrc:1
Dependent:0
Diode:2
Name:C1		Value:1		Node1:2		Node2:0
Name:R1		Value:1000		Node1:1		Node2:0
Name:R2		Value:0.001		Node1:1		Node2:2
Name:Is		Value:1		Node1:0		Node2:1type:d
Name:D1		Node1:1		Node2:0
Name:D2		Node1:2		Node2:0
-----------------------------------------------------
name:	0	 row/col number in matrix:	1
name:	1	 row/col number in matrix:	2
name:	2	 row/col number in matrix:	0