#Start parsing netlist ...
#grep an annotation:
* TestBench 4 for Homework 5, 2022 EDA course. 
#grep an annotation:
* Author    : Hao Limin
#grep an annotation:
* Date      : 2022/10/25
#grep an annotation:
* Info      : LC oscillation.
#grep an inductance:
L1 1 0 1
#grep a resistor:
R1 1 2 1
#grep a source:
V1 2 0 PULSE (0 1 1 1 1 1 15)
#grep a command:
.tran 0.1 30
#grep a command:
.plot TRAN v(1)
#grep a command:
.end
Here's the result of parser:
-----------------------------------------------------
Title:
TA-session-5-ckt-4
Nodes:3
Devices:4
Resistor:1	Capacitor:1	Inductance:1
Vsrc:1
Name:C1		Value:1		Node1:1		Node2:0
Name:L1		Value:1		Node1:1		Node2:0
Name:R1		Value:1		Node1:1		Node2:2
Name:V1		Value:0		Node1:2		Node2:0
-----------------------------------------------------
name:	0	 row/col number in matrix:	1
name:	1	 row/col number in matrix:	0
name:	2	 row/col number in matrix:	3
name:	I_L1	 row/col number in matrix:	2
name:	I_V1	 row/col number in matrix:	4