#Start parsing netlist ...
#grep an annotation:
* Try to find out all errors of the netlist.
#grep a resistor:
R1 node_1 node_2 1K
#grep a inductance:
L1 node_3 GND 1m
#grep a source:
VIN gnd node_1 DC 5
#grep a command:
.DC V1 0 10 1
#grep a command:
.print V(node_1)
#grep a command:
.end
Here's the result of parser:
-----------------------------------------------------
Title:
TestBench 4 for Parser
Nodes:5
Devices:3
Resistor:1	Capacitor:1	Inductance:1
Vsrc:1
Name:R1		Value:1000		Node1: node_1		Node2: node_2
Name:C1		Value:1e-11		Node1: node_2		Node2: node_3
Name:L1		Value:0.001		Node1: node_3		Node2: GND
Name:VIN		Value:5		Node1: gnd		Node2: node_1
-----------------------------------------------------
error: line 4:fail to parse'R2 node_2 node_3'
error: line 6:Element already exsists! 'C1 node_3 GND 1p'