Date:	2022-11-08	Time:	21:02:59	
#Start parsing netlist ...
#grep an annotation:
* TestBench 3 for Homework 6, 2022 EDA course. 
#grep an annotation:
* Author    : Hao Limin.
#grep an annotation:
* Date      : 2022/11/03.
#grep a command:
.model diode diode1
#grep a source:
V1 1 0 TRAN sin (0 1 1 0 0)
#grep a resistor:
R1 1 2 2m
#grep a diode:
D1 2 0 diode
#grep a command:
.tran 0.01 2 0
#grep a command:
.plot tran v(2) v(1)
#grep a command:
.end
Here's the result of parser:
-----------------------------------------------------
Title:
TA-session-6-ckt-3
Nodes:3
Devices:2
Resistor:1	Capacitor:0	Inductance:0
Vsrc:1
Isrc:0
Dependent:0
Diode:1
Name:R1		Value:0.002		Node1:1		Node2:2
Name:V1		Value:0		Node1:1		Node2:0
Name:D1		Node1:2		Node2:0
-----------------------------------------------------
name:	0	 row/col number in matrix:	2
name:	1	 row/col number in matrix:	1
name:	2	 row/col number in matrix:	3
name:	I_V1	 row/col number in matrix:	0